# generated using pymatgen
data_Cd6AsO2
_symmetry_space_group_name_H-M   'P 1'
_cell_length_a   6.27741485
_cell_length_b   6.27741485
_cell_length_c   10.24319601
_cell_angle_alpha   90.00000000
_cell_angle_beta   90.00000000
_cell_angle_gamma   120.00000000
_symmetry_Int_Tables_number   1
_chemical_formula_structural   Cd6AsO2
_chemical_formula_sum   'Cd12 As2 O4'
_cell_volume   349.56486635
_cell_formula_units_Z   2
loop_
 _symmetry_equiv_pos_site_id
 _symmetry_equiv_pos_as_xyz
  1  'x, y, z'
loop_
 _atom_site_type_symbol
 _atom_site_label
 _atom_site_symmetry_multiplicity
 _atom_site_fract_x
 _atom_site_fract_y
 _atom_site_fract_z
 _atom_site_occupancy
  O  O0  1  0.66666667  0.33333333  0.25000000  1
  O  O1  1  0.33333333  0.66666667  0.75000000  1
  O  O2  1  -0.00000000  -0.00000000  0.25000000  1
  O  O3  1  0.00000000  -0.00000000  0.75000000  1
  As  As4  1  0.33333333  0.66666667  0.25000000  1
  As  As5  1  0.66666667  0.33333333  0.75000000  1
  Cd  Cd6  1  0.04174622  0.70943546  0.88936418  1
  Cd  Cd7  1  0.66768923  0.70943546  0.61063582  1
  Cd  Cd8  1  0.04174622  0.33231077  0.61063582  1
  Cd  Cd9  1  0.29056454  0.95825378  0.61063582  1
  Cd  Cd10  1  0.70943546  0.66768923  0.11063582  1
  Cd  Cd11  1  0.33231077  0.29056454  0.38936418  1
  Cd  Cd12  1  0.95825378  0.29056454  0.11063582  1
  Cd  Cd13  1  0.66768923  0.95825378  0.88936418  1
  Cd  Cd14  1  0.95825378  0.66768923  0.38936418  1
  Cd  Cd15  1  0.70943546  0.04174622  0.38936418  1
  Cd  Cd16  1  0.33231077  0.04174622  0.11063582  1
  Cd  Cd17  1  0.29056454  0.33231077  0.88936418  1
