# generated using pymatgen
data_Cd6As2O
_symmetry_space_group_name_H-M   'P 1'
_cell_length_a   6.85064596
_cell_length_b   6.85064596
_cell_length_c   9.70463679
_cell_angle_alpha   90.00000000
_cell_angle_beta   90.00000000
_cell_angle_gamma   120.00000000
_symmetry_Int_Tables_number   1
_chemical_formula_structural   Cd6As2O
_chemical_formula_sum   'Cd12 As4 O2'
_cell_volume   394.43274828
_cell_formula_units_Z   2
loop_
 _symmetry_equiv_pos_site_id
 _symmetry_equiv_pos_as_xyz
  1  'x, y, z'
loop_
 _atom_site_type_symbol
 _atom_site_label
 _atom_site_symmetry_multiplicity
 _atom_site_fract_x
 _atom_site_fract_y
 _atom_site_fract_z
 _atom_site_occupancy
  O  O0  1  0.33333333  0.66666667  0.25000000  1
  O  O1  1  0.66666667  0.33333333  0.75000000  1
  As  As2  1  0.66666667  0.33333333  0.25000000  1
  As  As3  1  0.33333333  0.66666667  0.75000000  1
  As  As4  1  0.00000000  0.00000000  0.25000000  1
  As  As5  1  -0.00000000  -0.00000000  0.75000000  1
  Cd  Cd6  1  -0.04669503  0.62459811  0.89342029  1
  Cd  Cd7  1  0.67129314  0.62459811  0.60657971  1
  Cd  Cd8  1  -0.04669503  0.32870686  0.60657971  1
  Cd  Cd9  1  0.37540189  1.04669503  0.60657971  1
  Cd  Cd10  1  0.62459811  0.67129314  0.10657971  1
  Cd  Cd11  1  0.32870686  0.37540189  0.39342029  1
  Cd  Cd12  1  1.04669503  0.37540189  0.10657971  1
  Cd  Cd13  1  0.67129314  1.04669503  0.89342029  1
  Cd  Cd14  1  1.04669503  0.67129314  0.39342029  1
  Cd  Cd15  1  0.62459811  -0.04669503  0.39342029  1
  Cd  Cd16  1  0.32870686  -0.04669503  0.10657971  1
  Cd  Cd17  1  0.37540189  0.32870686  0.89342029  1
