# generated using pymatgen
data_Cd2As6O
_symmetry_space_group_name_H-M   'P 1'
_cell_length_a   6.18219125
_cell_length_b   6.18219125
_cell_length_c   12.99745075
_cell_angle_alpha   90.00000000
_cell_angle_beta   90.00000000
_cell_angle_gamma   120.00000000
_symmetry_Int_Tables_number   1
_chemical_formula_structural   Cd2As6O
_chemical_formula_sum   'Cd4 As12 O2'
_cell_volume   430.20324685
_cell_formula_units_Z   2
loop_
 _symmetry_equiv_pos_site_id
 _symmetry_equiv_pos_as_xyz
  1  'x, y, z'
loop_
 _atom_site_type_symbol
 _atom_site_label
 _atom_site_symmetry_multiplicity
 _atom_site_fract_x
 _atom_site_fract_y
 _atom_site_fract_z
 _atom_site_occupancy
  O  O0  1  0.33333333  0.66666667  0.25000000  1
  O  O1  1  0.66666667  0.33333333  0.75000000  1
  As  As2  1  0.46776453  0.53222577  0.40357717  1
  As  As3  1  -0.06446124  0.46777423  0.90357717  1
  As  As4  1  0.53223547  0.46777423  0.59642283  1
  As  As5  1  -0.06446124  0.46776453  0.59642283  1
  As  As6  1  0.53222577  1.06446124  0.59642283  1
  As  As7  1  0.46777423  0.53223547  0.09642283  1
  As  As8  1  0.46776453  -0.06446124  0.09642283  1
  As  As9  1  0.53222577  0.46776453  0.90357717  1
  As  As10  1  0.53223547  1.06446124  0.90357717  1
  As  As11  1  1.06446124  0.53223547  0.40357717  1
  As  As12  1  0.46777423  -0.06446124  0.40357717  1
  As  As13  1  1.06446124  0.53222577  0.09642283  1
  Cd  Cd14  1  -0.00000000  -0.00000000  0.75000000  1
  Cd  Cd15  1  0.00000000  0.00000000  0.25000000  1
  Cd  Cd16  1  0.33333333  0.66666667  0.75000000  1
  Cd  Cd17  1  0.66666667  0.33333333  0.25000000  1
