# generated using pymatgen
data_Cd2AsO6
_symmetry_space_group_name_H-M   'P 1'
_cell_length_a   5.60051300
_cell_length_b   5.60051300
_cell_length_c   9.49299246
_cell_angle_alpha   90.00000000
_cell_angle_beta   90.00000000
_cell_angle_gamma   120.00000000
_symmetry_Int_Tables_number   1
_chemical_formula_structural   Cd2AsO6
_chemical_formula_sum   'Cd4 As2 O12'
_cell_volume   257.86321154
_cell_formula_units_Z   2
loop_
 _symmetry_equiv_pos_site_id
 _symmetry_equiv_pos_as_xyz
  1  'x, y, z'
loop_
 _atom_site_type_symbol
 _atom_site_label
 _atom_site_symmetry_multiplicity
 _atom_site_fract_x
 _atom_site_fract_y
 _atom_site_fract_z
 _atom_site_occupancy
  O  O0  1  0.33174907  0.38779013  0.35788597  1
  O  O1  1  -0.05604106  0.61220987  0.85788597  1
  O  O2  1  0.66825093  0.61220987  0.64211403  1
  O  O3  1  -0.05604106  0.33174907  0.64211403  1
  O  O4  1  0.38779013  1.05604106  0.64211403  1
  O  O5  1  0.61220987  0.66825093  0.14211403  1
  O  O6  1  0.33174907  -0.05604106  0.14211403  1
  O  O7  1  1.05604106  0.38779013  0.14211403  1
  O  O8  1  0.38779013  0.33174907  0.85788597  1
  O  O9  1  1.05604106  0.66825093  0.35788597  1
  O  O10  1  0.61220987  -0.05604106  0.35788597  1
  O  O11  1  0.66825093  1.05604106  0.85788597  1
  As  As12  1  0.66666667  0.33333333  0.75000000  1
  As  As13  1  0.33333333  0.66666667  0.25000000  1
  Cd  Cd14  1  -0.00000000  -0.00000000  0.75000000  1
  Cd  Cd15  1  0.00000000  0.00000000  0.25000000  1
  Cd  Cd16  1  0.33333333  0.66666667  0.75000000  1
  Cd  Cd17  1  0.66666667  0.33333333  0.25000000  1
