# generated using pymatgen
data_Cd6As2O
_symmetry_space_group_name_H-M   'P 1'
_cell_length_a   6.67203194
_cell_length_b   6.67203194
_cell_length_c   5.49552421
_cell_angle_alpha   90.00000000
_cell_angle_beta   90.00000000
_cell_angle_gamma   120.00000000
_symmetry_Int_Tables_number   1
_chemical_formula_structural   Cd6As2O
_chemical_formula_sum   'Cd6 As2 O1'
_cell_volume   211.86342607
_cell_formula_units_Z   1
loop_
 _symmetry_equiv_pos_site_id
 _symmetry_equiv_pos_as_xyz
  1  'x, y, z'
loop_
 _atom_site_type_symbol
 _atom_site_label
 _atom_site_symmetry_multiplicity
 _atom_site_fract_x
 _atom_site_fract_y
 _atom_site_fract_z
 _atom_site_occupancy
  O  O0  1  -0.00000000  -0.00000000  -0.00000000  1
  As  As1  1  0.33333333  0.66666667  0.50000000  1
  As  As2  1  0.66666667  0.33333333  0.50000000  1
  Cd  Cd3  1  0.33387508  0.00000000  0.80659762  1
  Cd  Cd4  1  0.00000000  0.33387508  0.80659762  1
  Cd  Cd5  1  0.66612492  0.66612492  0.80659762  1
  Cd  Cd6  1  0.00000000  0.66612492  0.19340238  1
  Cd  Cd7  1  0.66612492  -0.00000000  0.19340238  1
  Cd  Cd8  1  0.33387508  0.33387508  0.19340238  1
